!S. Porras, D. Kaczmarek, J. Herzler, S. Drost1, M. Werler1, T. Kasper, M. Fikri, R. Schießl1, B. Atakan, C. Schulz, U. Maas,
!An experimental and modeling study on the reactivity of extremely fuel-rich methane/dimethyl ether mixtures
!Combustion and Flame 2019

ELEMENTS
C H O N AR HE
END

SPECIES 
N2       CH4      CH3OCH3  H2       C2H2     C2H4     C2H6     
CO       CO2      H2O      CH3OH    O2       CH2O     H        
CH2      CH2(S)   CH3      O        OH       C2H      C2H3     
C2H5     CH2OH    CH3O     C2O      HO2      H2O2     HCCO     
CH2CO    CH3CO    CH3CHO   OCHO     CH3CHOH  CH3CH2O  CH3OCH2 
HCOOH    C2H5OH   HOCH2O   CH3OCO   CH3OCHO  CH3OCH2O OCH2OCHO 
HOCH2OCO HOC2H4O2 SSP_0002 SSP_0003 SSP_0004 SSP_0005 SSP_0006 
AR       HE       C3H3     PC3H4    AC3H4    M-C3H5   S-C3H5   
C3H6     N-C3H7   C4H2     N-C4H3   I-C4H3   C4H4     E-C4H5   
Z-C4H5   E-C4H6   Z-C4H6   EZ-C4H6  ED-C4H6  C6H6     CH      
C        C3H2     CH3O2    CHO      CH3O2H   CH2CH2OH I-C3H7   
CH2CHO   C3H8     C5H3     C4H      HO2CHO   O2CHO
END

!SSP_0002 =   CH3OCH2O2
!SSP_0003 =   CH2OCH2O2H
!SSP_0004 =   CH3OCH2O2H
!SSP_0005 =   HO2CH2OCHO
!SSP_0006 =   O2CH2OCH2O2H

REACTIONS  KJOULES/MOLE 
!<><><><><><><><><><><><><><><><><><><><><><><><><><><><><><><><><><><><><><><>!
!
!                         ----- CH4 Pyrolysis -----
!
!<><><><><><><><><><><><><><><><><><><><><><><><><><><><><><><><><><><><><><><>!

CH4     +CH2     =CH3     +CH3                4.300E+12   0.00    41.868

H       +CH3    (+M)      =CH4    (+M)        1.270E+16  -0.60     1.604
   LOW/ 1.420E+33  -4.80    10.216/
   TROE/ 7.830E-01   7.400E+01   2.941E+03   6.964E+03/
   H2/2.0/ H2O/6.0/ CH4/2.0/ CO/1.5/ CO2/2.0/ C2H6/3.0/ AR/0.7/ 

CH4     +H       =H2      +CH3                3.072E+05   2.50    40.115
CH4     +CH2(S)  =CH3     +CH3                1.600E+13   0.00    -2.386
CH4     +CH      =C2H4    +H                  3.000E+13   0.00    -1.700
CH3     +M       =CH2     +H       +M         1.900E+16   0.00   382.674
CH3     +M       =CH      +H2      +M         6.900E+14   0.00   345.411
CH3     +CH2     =C2H4    +H                  1.000E+13   0.00     0.000
CH3     +CH3     =C2H5    +H                  1.500E+12   0.10    44.380

CH3     +CH3    (+M)      =C2H6   (+M)        2.407E+13   0.00     0.000
   LOW/ 1.269E+41  -7.00    11.556/
   TROE/ 6.200E-01   7.300E+01   1.180E+03   0.000E+00/

CH3     +C2H     =C3H3    +H                  2.400E+13   0.00     0.000
CH3     +C3H2    =C4H4    +H                  5.000E+12   0.00     0.000
CH3     +CH2(S)  =C2H4    +H                  1.600E+13   0.00    -2.380
CH3     +H       =CH2     +H2                 6.220E+13   0.00    63.190
CH2     +H       =CH      +H2                 1.000E+18  -1.60     0.000
CH2     +CH2     =C2H2    +H       +H         1.630E+15   0.00    49.880
CH2     +CH2     =C2H2    +H2                 1.810E+14   0.00    49.880
CH2(S)  +H2      =CH3     +H                  1.260E+16  -0.56    66.486

CH2(S)  +M       =CH2     +M                  6.022E+12   0.00     0.000
   H2/1.0/ H2O/6.5/ O2/0.4/ AR/0.35/ N2/0.4/ CO/0.75/ CO2/1.5/ CH4/1.0/ 

CH2     +C3H2    =N-C4H3  +H                  8.000E+13   0.00     0.000
CH2     +C3H3    =C4H4    +H                  7.000E+13   0.00     0.000
CH2     +C4H2    =C5H3    +H                  1.300E+13   0.00    27.600
CH2(S)  +C4H2    =C5H3    +H                  2.000E+13   0.00     0.000
CH2     +M-C3H5  =ED-C4H6 +H                  4.000E+13   0.00     0.000
CH      +H       =C       +H2                 1.200E+14   0.00     0.000
CH      +C3H2    =C4H2    +H                  5.000E+13   0.00     0.000
C2H     +CH4     =C2H2    +CH3                1.810E+12   0.00     2.081
C2H2    +C2H2    =I-C4H3  +H                  1.130E+14   0.00   234.461
C2H2    +C2H2    =N-C4H3  +H                  1.130E+14   0.00   234.461
C2H2    +H       =C2H     +H2                 2.900E+14   0.00   107.182
C2H2    +CH      =C3H3                        3.000E+13   0.00     0.000
C2H2    +CH2     =PC3H4                       4.200E+12   0.00    27.717
C2H2    +C2H3    =C4H4    +H                  1.990E+12   0.00    20.934
C2H2    +CH2(S)  =C3H3    +H                  6.000E+13   0.00     0.000
C2H2    +CH2     =C3H3    +H                  1.600E+13   0.00    27.600
C2H2    +CH      =C3H2    +H                  3.000E+13   0.00    -0.500
C2H2    +CH2(S)  =PC3H4                       6.000E+13   0.00     0.000
C2H2    +CH2     =AC3H4                       4.200E+12   0.00    27.717
C2H2    +CH2(S)  =AC3H4                       6.000E+13   0.00     0.000
C2H2    +C2H     =C4H2    +H                  4.120E+15  -0.49     3.098

C2H2    +M       =C2H     +H       +M         3.600E+16   0.00   446.000
   H2/1.0/ H2O/6.5/ O2/0.4/ AR/0.35/ N2/0.4/ CO/0.75/ CO2/1.5/ CH4/1.0/

C2H2    +CH3     =M-C3H5                      6.000E+11   0.00    32.400
C2H3    +C2H4    =ED-C4H6 +H                  7.830E+10   0.00     0.000
C2H3    +H       =C2H2    +H2                 9.600E+13   0.00     0.000
C2H3    +CH3     =C2H2    +CH4                2.040E+13   0.00     0.000
C2H3    +C2H3    =C2H2    +C2H4               1.440E+13   0.00     0.000
C2H3    +C2H3    =ED-C4H6                     9.800E+14  -0.50     0.000

C2H3   (+M)      =C2H2    +H      (+M)        7.800E+08   1.62   155.056
   LOW/ 3.237E+27  -3.40   149.818/
   TROE/ 0.35  0.000E+00   0.000E+00   0.000E+00/
   H2/1.0/ H2O/6.5/ O2/0.4/ AR/0.35/ N2/0.4/ CO/0.75/ CO2/1.5/ CH4/1.0/

C2H4    +M       =C2H2    +H2      +M         2.920E+17   1.00   327.488
   H2/1.0/ H2O/6.5/ O2/0.4/ AR/0.35/ N2/0.4/ CO/0.75/ CO2/1.5/ CH4/1.0/ 
   
C2H4    +M       =C2H3    +H       +M         7.399E+17   0.00   404.060
   H2/1.0/ H2O/6.5/ O2/0.4/ AR/0.35/ N2/0.4/ CO/0.75/ CO2/1.5/ CH4/1.0/
   
C2H4    +C2H4    =C2H5    +C2H3               5.010E+14   0.00   270.886
C2H4    +H       =C2H3    +H2                 5.400E+14   0.00    62.900
C2H4    +CH3     =C2H3    +CH4                4.200E+11   0.00    46.473
C2H4    +C2H     =C4H4    +H                  1.200E+13   0.00     0.000

H       +C2H4   (+M)      =C2H5   (+M)        3.975E+09   1.28     5.400
   LOW/ 1.178E+19   0.00     3.200/
   TROE/ 0.76  4.000E+01   1.025E+03   0.000E+00/
   H2/1.0/ H2O/6.5/ O2/0.4/ AR/0.35/ N2/0.4/ CO/0.75/ CO2/1.5/ CH4/1.0/

C2H4    +CH      =AC3H4   +H                  1.320E+14   0.00    -1.440
C2H4    +CH2(S)  =C3H6                        7.240E+13   0.00     0.000
C2H5    +CH3     =C2H4    +CH4                9.030E+11   0.00     0.000
C2H5    +H       =C2H4    +H2                 4.500E+13   0.00     0.000
C2H5    +C2H5    =C2H4    +C2H6               1.400E+12   0.00     0.000

C2H5    +H      (+M)      =C2H6   (+M)        5.210E+17  -0.99     6.615
  LOW/1.990E+41  -7.08    27.989/
  TROE/ 8.422E-01  1.250E+02   2.219E+03   6.882E+03/
  H2/2.0/ H2O/6.0/ CH4/2.0/ CO/1.5/ CO2/2.0/ C2H6/3.0/ AR/0.7/

C2H6    +H       =C2H5    +H2                 1.150E+08   1.90    31.527
C2H6    +CH2     =C2H5    +CH3                2.200E+13   0.00    36.300
C2H6    +CH      =C2H4    +CH3                1.084E+14   0.00    -1.100
C2H6    +CH3     =C2H5    +CH4                5.601E+10   0.00    39.408
   DUPLICATE                                                 
C2H6    +CH3     =C2H5    +CH4                8.432E+14   0.00    93.116
   DUPLICATE 

C3H3    +C3H3    =C6H6                        3.914E+13   0.00     0.000
C3H3    +CH3     =E-C4H6                      5.000E+12   0.00     0.000
AC3H4   +C3H3    =C6H6    +H                  1.400E+12   0.00    41.868
PC3H4   +CH3     =C3H3    +CH4                2.000E+12   0.00    32.238
AC3H4   +CH3     =C3H3    +CH4                2.000E+12   0.00    32.238
AC3H4   +H       =M-C3H5                      4.000E+12   0.00    11.304
AC3H4   +M       =C3H3    +H       +M         2.000E+18   0.00   334.944
PC3H4            =AC3H4                       2.100E+12   0.00   251.208
AC3H4   +H       =S-C3H5                      8.500E+12   0.00     8.374
AC3H4   +H       =C3H3    +H2                 1.000E+12   0.00     6.280
PC3H4   +H       =C3H3    +H2                 1.000E+12   0.00     6.280
PC3H4   +H       =S-C3H5                      6.500E+12   0.00     8.374
AC3H4   +AC3H4   =C2H4    +C4H4               1.000E+15   0.00   200.966
PC3H4   +M       =C3H3    +H       +M         4.700E+18   0.00   334.944
AC3H4   +C2H     =C3H3    +C2H2               1.000E+13   0.00     0.000
PC3H4   +C2H     =C3H3    +C2H2               1.000E+13   0.00     0.000
PC3H4   +H       =C2H2    +CH3                2.000E+13   0.00    10.048
AC3H4   +H       =C2H2    +CH3                2.000E+13   0.00    10.048
PC3H4   +C2H3    =C3H3    +C2H4               1.000E+12   0.00    32.000
M-C3H5  +H       =AC3H4   +H2                 3.000E+13   0.00     0.000
M-C3H5  +CH3     =PC3H4   +CH4                3.614E+11   0.00     0.000
M-C3H5  +M-C3H5  =C3H6    +PC3H4              6.023E+10   0.00     0.000
C3H6    +CH3     =M-C3H5  +CH4                1.000E+12   0.00    33.494
C3H6    +H       =M-C3H5  +H2                 6.000E+12   0.00     6.280
C3H6    +H       =C2H4    +CH3                3.400E+13   0.00    14.654
C3H6             =AC3H4   +H2                 4.000E+13   0.00   334.944
C3H6             =C2H3    +CH3                8.000E+14   0.00   368.438
C3H6             =C2H2    +CH4                3.500E+12   0.00   293.076
C3H6    +C2H5    =M-C3H5  +C2H6               1.000E+11   0.00    38.498
C3H6             =S-C3H5  +H                  1.000E+15   0.00   368.438
C3H6             =M-C3H5  +H                  1.000E+15   0.00   368.438
N-C3H7           =C3H6    +H                  3.000E+13   0.00   154.912
N-C3H7           =C2H4    +CH3                9.000E+13   0.00   139.002
I-C3H7           =H       +C3H6               6.300E+13   0.00   154.493
I-C3H7           =CH3     +C2H4               2.000E+10   0.00   123.469
I-C3H7  +CH4    =>CH3     +C3H8               1.010E+13   0.00    77.707
N-C3H7  +CH4    =>CH3     +C3H8               3.120E+12   0.00    68.915
C3H8    +H       =H2      +N-C3H7             1.300E+14   0.00    40.599
C3H8    +H       =H2      +I-C3H7             1.000E+14   0.00    34.897
C3H8    +CH3    =>CH4     +N-C3H7             4.000E+11   0.00    39.800
C3H8    +CH3    =>CH4     +I-C3H7             1.300E+12   0.00    48.609

C3H8   (+M)      =CH3     +C2H5   (+M)        4.000E+23  -1.870   377.398
   LOW/ 2.240E+19   0.00   217.881/
   TROE/ 7.600E-01  1.946E+03   3.800E+01   0.000E+00/
   H2/1.0/ H2O/6.5/ O2/0.4/ AR/0.35/ N2/0.4/ CO/0.75/ CO2/1.5/ CH4/1.0/

C4H     +H2      =C4H2    +H                  4.900E+05   2.50     2.300

C4H     +H      (+M)      =C4H2   (+M)        1.000E+17  -1.00     0.000
   LOW/ 3.800E+33  -4.80     7.900/
   TROE/ 6.464E-01  1.320E+02   1.315E+03   5.566E+03/   
   H2/2.0/ H2O/6.0/ CH4/2.0/ CO/1.5/ CO2/2.0/ C2H6/3.0/ AR/0.7/

I-C4H3  +H       =C4H2    +H2                 5.010E+13   0.00     0.000
I-C4H3  +M       =C4H2    +H       +M         3.160E+15   0.00   188.406
N-C4H3           =C2H2    +C2H                3.200E+14   0.00   239.485
N-C4H3  +H       =C4H2    +H2                 2.512E+13   0.00     0.000
N-C4H3  +M       =C4H2    +H       +M         6.309E+15   0.00   188.406
I-C4H3           =N-C4H3                      1.500E+13   0.00   283.675
C4H4    +H       =I-C4H3  +H2                 1.000E+07   2.00    25.121
C4H4    +H       =N-C4H3  +H2                 5.010E+06   2.00    25.121
C4H4             =C4H2    +H2                 1.260E+15   0.00   396.490
C4H4             =C2H2    +C2H2               3.160E+13   0.00   322.802
C4H4             =I-C4H3  +H                  6.309E+13   0.00   364.670
Z-C4H5           =C4H4    +H                  3.000E+13   0.00   188.406
E-C4H5           =C4H4    +H                  3.000E+13   0.00   188.406
E-C4H5           =C2H     +C2H4               2.140E+14   0.00   238.648
Z-C4H5           =C2H3    +C2H2               1.000E+14   0.00   183.678
E-C4H5           =Z-C4H5                      1.500E+13   0.00   283.865
Z-C4H5  +C2H2    =C6H6    +H                  2.380E+08   1.18    15.481
E-C4H6  +H       =E-C4H5  +H2                 2.600E+06   2.53    38.600
Z-C4H6  +H       =Z-C4H5  +H2                 1.300E+14   0.00    39.356
Z-C4H6  +H       =CH3     +PC3H4              2.600E+05   2.50     4.187
Z-C4H6           =EZ-C4H6                     3.000E+13   0.00   280.516
EZ-C4H6          =ED-C4H6                     2.500E+13   0.00   263.768
Z-C4H6           =ED-C4H6                     3.000E+13   0.00   272.142
E-C4H6           =EZ-C4H6                     2.500E+13   0.00   272.142
ED-C4H6 +CH3     =E-C4H5  +CH4                2.000E+14   0.00    95.459
ED-C4H6 +CH3     =Z-C4H5  +CH4                4.000E+14   0.00    95.459
ED-C4H6 +H       =E-C4H5  +H2                 2.500E+15   0.00    95.459
ED-C4H6 +H       =Z-C4H5  +H2                 5.000E+15   0.00    95.459
ED-C4H6          =C2H4    +C2H2               6.400E+13   0.00   322.802
ED-C4H6          =C4H4    +H2                 2.520E+15   0.00   396.490
E-C4H6           =E-C4H5  +H                  9.100E+14   0.00   416.276
Z-C4H6           =Z-C4H5  +H                  2.000E+14   0.00   365.263

H       +H       +M       =H2      +M         1.015E+17  -0.60     0.000
   H2/1.0/ H2O/6.5/ O2/0.4/ AR/0.35/ N2/0.4/ CO/0.75/ CO2/1.5/ CH4/1.0/

!<><><><><><><><><><><><><><><><><><><><><><><><><><><><><><><><><><><><><><><>!
!
!                            ----- CH4 Oxidation -----
!
!<><><><><><><><><><><><><><><><><><><><><><><><><><><><><><><><><><><><><><><>!

CH4     +O2      =CH3     +HO2                4.878E+05   2.50   219.240
CH4     +HO2     =H2O2    +CH3                3.288E+04   2.50    87.879
CH4     +OH      =H2O     +CH3                1.367E+06   2.18    11.223
CH4     +O       =OH      +CH3                4.396E+05   2.50    27.519
CH3     +O       =CH2O    +H                  7.000E+13   0.00     0.000
CH3     +OH      =CH2     +H2O                1.500E+13   0.00    20.934
CH3     +OH      =CH2O    +H2                 5.480E+13   0.00    12.477
CH3     +OH      =CH2OH   +H                  9.000E+14   0.00    66.989
CH3     +O2      =CH2O    +OH                 3.600E+10   0.00    37.430
CH3     +O2      =CH3O    +O                  1.870E+13   0.00   120.580

CH3     +OH     (+M)      =CH3OH  (+M)        4.430E+15  -0.79     0.000
  LOW/ 1.100E+15  -6.21     5.577/    
  TROE/ 2.500E-01  2.100E+02   1.434E+03   0.000E+00/
  H2/1.0/ H2O/6.5/ O2/0.4/ AR/0.35/ N2/0.4/ CO/0.75/ CO2/1.5/ CH4/1.0/ 

CH3     +O2     (+M)       =CH3O2  (+M)        7.830E+08   1.20    0.000
  LOW/ 1.550E+26  -3.30     0.000/
  TROE/ 3.600E-01  0.000E+00   0.000E+00   0.000E+00/
  H2/1.0/ H2O/6.5/ O2/0.4/ AR/0.35/ N2/0.4/ CO/0.75/ CO2/1.5/ CH4/1.0/ 

CH3     +CO     (+M)      =CH3CO  (+M)        5.060E+11   0.00    28.768
  LOW/ 3.110E+14   0.00    15.876/
  TROE/ 5.000E-01  0.000E+00   0.000E+00   0.000E+00/
  H2/1.0/ H2O/6.5/ O2/0.4/ AR/0.35/ N2/0.4/ CO/0.75/ CO2/1.5/ CH4/1.0/ 

CH3     +OH      =CH2(S)  +H2O                2.501E+13   0.00     0.000
CH3     +O       =CO      +H       +H2        3.800E+13   0.00     0.000
CH3     +OH      =CH3O    +H                  1.300E+14   0.00    64.800
CH3     +HO2     =CH3O    +OH                 1.100E+13   0.00     0.000
CH2     +O2      =CO2     +H       +H         2.270E+12   0.00     4.187
CH2     +O      =>CO      +H       +H         1.228E+14   0.00     2.244
CH2     +O       =CO      +H2                 8.191E+13   0.00     2.244
CH2     +O2      =CO      +OH      +H         1.806E+12   0.00     0.000
CH2     +O2      =CO2     +H2                 1.806E+12   0.00     0.000
CH2(S)  +O2      =CO      +OH      +H         3.100E+13   0.00     0.000
CH2     +O       =CHO     +H                  8.000E+13   0.00     0.000
CH2     +OH      =CH2O    +H                  2.000E+13   0.00     0.000
CH2     +HO2     =CH2O    +OH                 2.000E+13   0.00     0.000
CH2(S)  +H2O     =CH2     +H2O                3.000E+13   0.00     0.000
CH2(S)  +CO      =CH2     +CO                 9.000E+12   0.00     0.000
CH2(S)  +CO2     =CH2     +CO2                7.000E+12   0.00     0.000
CH2(S)  +O       =CO      +H2                 1.500E+13   0.00     0.000
CH2(S)  +O       =CHO     +H                  1.500E+13   0.00     0.000
CH2(S)  +OH      =CH2O    +H                  3.000E+13   0.00     0.000
CH2(S)  +O2      =CO      +H2O                1.200E+13   0.00     0.000
CH2(S)  +CO2     =CH2O    +CO                 1.400E+13   0.00     0.000

CH2(S)  +H2O    (+M)      =CH3OH  (+M)        4.820E+17  -1.16     4.794
  LOW/ 1.880E+38  -6.36    21.101/  
  TROE/ 6.027E-01  2.080E+02   3.922E+03   1.018E+04/
  H2/2.0/ H2O/6.0/ CH4/2.0/ CO/1.5/ CO2/2.0/ C2H6/3.0/  
  
CH2     +O2      =CO      +H2O                2.200E+22  -3.30    12.000
CH2     +O2      =CH2O    +O                  3.300E+21  -3.30    12.000
CH      +O2      =CO2     +H                  2.100E+13   0.00     0.000
CH      +O       =CO      +H                  4.000E+13   0.00     0.000
CH      +OH      =CHO     +H                  3.000E+13   0.00     0.000
CH      +O2      =CHO     +O                  1.686E+13   0.00     0.000
CH      +CO      =HCCO                        3.790E+00  -2.50     0.000
CH      +CO2     =CHO     +CO                 6.384E+07   1.51    -2.993
CH      +H2O     =CH2O    +H                  4.577E+16  -1.42     0.000
CH      +H2O     =CH2     +OH                 4.577E+16  -1.42     0.000
C       +O2      =CO      +O                  6.023E+13   0.00     2.660
CHO     +H       =H2      +CO                 2.160E+14   0.00     0.000
CHO     +O       =OH      +CO                 3.000E+13   0.00     0.000
CHO     +OH      =H2O     +CO                 5.000E+13   0.00     0.000
CHO     +CH3     =CH4     +CO                 1.200E+14   0.00     0.000
CHO     +O       =CO2     +H                  3.011E+13   0.00     0.000
CHO     +CHO     =CH2O    +CO                 3.000E+13   0.00     0.000
CHO     +O2      =CO      +HO2                7.580E+12   0.00     1.717
CHO     +HO2     =CO2     +OH      +H         3.000E+13   0.00     0.000
CHO     +M       =CO      +H       +M         3.975E+13   0.00    65.015
CH2O    +M       =CHO     +H       +M         5.540E+15   0.00   314.010
CH2O    +M       =CO      +H2      +M         2.520E+16   0.00   299.356
CH2O    +O2      =CHO     +HO2                1.230E+06   3.00   217.714
CH2O    +O       =CHO     +OH                 3.500E+13   0.00    14.696
CH2O    +OH      =CHO     +H2O                4.500E+13   0.00     5.024
CH2O    +HO2     =CHO     +H2O2               2.048E+04   2.50    42.747
CH2O    +H       =CHO     +H2                 1.365E+08   1.47    10.226
CH2O    +CH3     =CHO     +CH4                4.819E+01   3.36    18.041
CH2O    +OH      =HOCH2O                      4.500E+15  -1.11     0.000
CH3O    +O2      =CH2O    +HO2                4.040E+10   0.00     8.918
CH3O    +H       =CH2O    +H2                 3.794E+13   0.00     2.494
CH3O    +O       =OH      +CH2O               3.764E+12   0.00     0.000
CH3O    +OH      =CH2O    +H2O                1.810E+13   0.00     0.000
CH3O    +CH2O    =CH3OH   +CHO                1.150E+11   0.00     5.196

CH3O    (+M)     =CH2O    +H       (+M)       6.800E+13   0.00    109.490
   LOW/ 4.660E+25  -3.00   101.680/ 
   TROE/ 0.45 0.000E+00   0.000E+00   0.000E+00/
   H2/1.0/ H2O/6.5/ O2/0.4/ AR/0.35/ N2/0.4/ CO/0.75/ CO2/1.5/ CH4/1.0/

CH3O    +HO2     =CH2O    +H2O2               3.000E+11   0.00     0.000
CH3O    +CO      =CH3     +CO2                1.600E+13   0.00    49.404
CH3O    +CHO     =CH3OH   +CO                 9.000E+13   0.00     0.000
CH3O    +CH3O    =CH3OH   +CH2O               6.000E+13   0.00     0.000
CH3O    +H       =CH2(S)  +H2O                1.600E+13   0.00     0.000

H       +CH3O   (+M)      =CH3OH  (+M)        2.430E+12   0.52     0.209
  LOW/ 4.660E+41  -7.44    58.950/
  TROE/ 7.000E-01  1.000E+02   9.000E+04   1.000E+04/
  H2/2.0/ H2O/6.0/ CH4/2.0/ CO/1.5/ CO2/2.0/ C2H6/3.0/ 

CH2OH   +M       =CH2O    +H       +M         4.400E+15   0.00   125.604
CH2OH   +H       =CH2O    +H2                 2.440E+13   0.00     0.000
CH2OH   +O2      =CH2O    +HO2                2.890E+16  -1.50     0.000
   DUPLICATE
CH2OH   +O2      =CH2O    +HO2                7.230E+13   0.00    15.629
   DUPLICATE
   
CH2OH   +O       =CH2O    +OH                 4.200E+13   0.00     0.000
CH2OH   +OH      =CH2O    +H2O                2.400E+13   0.00     0.000
CH2OH   +HO2     =CH2O    +H2O2               1.200E+13   0.00     0.000
CH2OH   +CHO     =CH3OH   +CO                 1.000E+13   0.00     0.000
CH2OH   +CHO     =CH2O    +CH2O               1.500E+13   0.00     0.000
CH2OH   +CH2OH   =CH3OH   +CH2O               3.000E+12   0.00     0.000
CH2OH   +CH3O    =CH3OH   +CH2O               2.400E+13   0.00     0.000

H       +CH2OH  (+M)      =CH3OH  (+M)        1.055E+12   0.50     0.360
  LOW/ 4.360E+31  -4.65    21.269/
  TROE/ 6.000E-01  1.000E+02   9.000E+04   1.000E+04/
  H2/2.0/ H2O/6.0/ CH4/2.0/ CO/1.5/ CO2/2.0/ C2H6/3.0/ 

CH3O2   +HO2     =CH3O2H  +O2                 2.276E+11   0.00    -6.234
CH3O2   +CH3O2  =>CH2O    +CH3OH   +O2        3.426E+10   0.00    -3.242
CH3O2   +CH3O2  =>CH3O    +CH3O    +O2        2.288E+10   0.00    -3.242
CH3O2   +H2O2    =CH3O2H  +HO2                2.400E+12   0.00    41.797
CH3O2   +CH2O    =CH3O2H  +CHO                1.300E+11   0.00    37.681
CH3O2   +CH4     =CH3O2H  +CH3                1.810E+11   0.00    77.791
CH3O2   +CH3OH   =CH3O2H  +CH2OH              1.810E+11   0.00    57.694
CH3O2   +CH3     =CH3O    +CH3O               1.500E+13   0.00    -4.999
CH3OH   +O       =CH2OH   +OH                 1.975E+13   0.00    22.198
CH3OH   +OH      =CH2OH   +H2O                5.273E+06   1.92    -1.197
CH3OH   +OH      =CH3O    +H2O                9.300E+05   1.92    -1.197
CH3OH   +HO2     =CH2OH   +H2O2               6.200E+12   0.00    81.098
CH3OH   +H       =CH2OH   +H2                 3.070E+05   2.55    22.776
CH3OH   +H       =CH3O    +H2                 1.990E+05   2.56    43.124
CH3OH   +CH3     =CH2OH   +CH4                3.190E+01   3.17    30.024
CH3OH   +CH3     =CH3O    +CH4                1.450E+01   3.10    29.035
CH3O2H           =CH3O    +OH                 6.000E+14   0.00   177.060
CH3O2H  +O       =OH      +CH3O2              2.469E+13   0.00    19.950
CH3O2H  +OH      =H2O     +CH3O2              1.084E+12   0.00    -1.829
C2H     +O2      =CO      +CO      +H         1.800E+13   0.00     0.000
C2H     +OH      =H       +HCCO               2.000E+13   0.00     0.000
C2H     +O       =CO      +CH                 5.962E+13   0.00     0.000
C2H     +O2      =CHO     +CO                 1.000E+15  -0.35     0.000
C2H     +O2      =CO2     +CH                 8.150E+12  -0.35     0.000
C2H     +O2      =HCCO    +O                  8.150E+12  -0.35     0.000
HCCO    +H       =CH2     +CO                 1.500E+14   0.00     0.000
HCCO    +O       =CO      +CO      +H         9.600E+13   0.00     0.000
HCCO    +OH      =CO      +CO      +H2        1.000E+14   0.00     0.000
HCCO    +O2      =CO      +CO      +OH        4.200E+10   0.00     3.559
HCCO    +CH2     =C2H3    +CO                 3.000E+13   0.00     0.000
HCCO    +CH3     =C2H4    +CO                 2.000E+12   0.00     0.000
HCCO    +H       =CH2(S)  +CO                 1.000E+14   0.00     0.000
HCCO    +OH      =CHO     +H       +CO        1.000E+13   0.00     0.000
HCCO    +HCCO    =C2H2    +CO      +CO        1.000E+13   0.00     0.000
HCCO    +O2      =H       +CO      +CO2       6.000E+12   0.00     3.600
HCCO    +OH      =C2O     +H2O                9.000E+13   0.00     0.000
C2H2    +O2      =CHO     +CHO                1.000E+12   0.00   117.230
C2H2    +O       =CH2     +CO                 2.080E+14   0.00    41.449
C2H2    +O       =HCCO    +H                  5.200E+14   0.00    44.799
C2H2    +OH      =C2H     +H2O                1.440E+04   2.70    50.242
C2H2    +OH      =CH2CO   +H                  3.200E+11   0.00     0.837
C2H2    +O2      =HCCO    +OH                 5.000E+07   1.50   125.981
C2H2    +O       =C2H     +OH                 4.600E+19  -1.41   121.208
C2H2    +OH      =CH3     +CO                 4.830E-04   4.00    -8.374
C2H2    +HO2     =CH2CO   +OH                 6.030E+09   0.00    33.260
C2H2    +HCCO    =C3H3    +CO                 1.000E+11   0.00    12.500
CH2CO   +M       =CO      +CH2     +M         3.960E+15   0.00   248.277
CH2CO   +H       =HCCO    +H2                 1.800E+14   0.00    36.006
CH2CO   +H       =CH3     +CO                 1.110E+07   2.00     8.374
CH2CO   +O       =CH2     +CO2                1.000E+13   0.00     0.000
CH2CO   +O       =CH2O    +CO                 2.280E+12   0.00     5.652
CH2CO   +OH      =CH2O    +CHO                5.000E+12   0.00     0.000
CH2CO   +OH      =CH2OH   +CO                 5.000E+12   0.00     0.000
CH2CO   +CH3     =C2H5    +CO                 9.000E+10   0.00     0.000
CH2CO   +CH3     =HCCO    +CH4                7.500E+12   0.00    54.428
CH2CO   +O       =CHO     +H       +CO        1.806E+11   0.00     5.652
CH2CO   +O       =CHO     +CHO                1.806E+11   0.00     5.652
CH2CO   +OH      =CH3     +CO2                6.239E+11   0.00     4.237
CH2CO   +O       =HCCO    +OH                 1.000E+13   0.00    33.494
CH2CO   +OH      =HCCO    +H2O                1.000E+13   0.00     8.374
C2H3    +O       =CH2CO   +H                  9.600E+13   0.00     0.000
C2H3    +OH      =C2H2    +H2O                3.000E+13   0.00     0.000
C2H3    +O2      =C2H2    +HO2                6.600E+21  -3.30    22.651
C2H3    +O2      =CH2O    +CHO                4.000E+21  -3.00    10.048
C2H3    +O2      =CH2CHO  +O                  9.600E+13   0.00     5.401
C2H3    +O       =C2H2    +OH                 3.011E+13   0.00     0.000
C2H3    +O       =CH3     +CO                 3.011E+13   0.00     0.000
C2H3    +O       =CHO     +CH2                3.011E+13   0.00     0.000
C2H3    +H2O2    =C2H4    +HO2                1.210E+10   0.00    -2.495
C2H3    +CHO     =C2H4    +CO                 2.500E+09   0.00     0.000
CH2CHO           =CH2CO   +H                  1.050E+37  -7.20   185.559
CH2CHO  +H       =CH2CO   +H2                 2.000E+13   0.00     0.000
CH2CHO  +H       =CH3     +CHO                5.000E+13   0.00     0.000
CH2CHO  +O       =CH2O    +CHO                1.000E+14   0.00     0.000
CH2CHO  +OH      =CH2CO   +H2O                3.000E+13   0.00     0.000
CH2CHO  +O2      =CH2O    +CO      +OH        3.000E+10   0.00     0.000
CH2CHO  +CH3     =C2H5    +CO      +H         4.900E+14  -0.50     0.000
CH2CHO  +HO2     =CH2O    +CHO     +OH        7.000E+12   0.00     0.000
CH2CHO  +HO2     =CH3CHO  +O2                 3.000E+12   0.00     0.000
CH2CHO           =CH3     +CO                 1.170E+43  -9.83   183.198
C2H4    +O       =CH3     +CHO                1.320E+07   1.90     2.512
C2H4    +O       =CH2CHO  +H                  6.800E+11   0.00     2.931
C2H4    +O       =CH2O    +CH2                1.800E+13   0.00    16.747
C2H4    +OH      =C2H3    +H2O                2.040E+13   0.00    24.870
C2H4    +HO2     =CH3CHO  +OH                 2.230E+12   0.00    72.013
C2H4    +O       =CH2CO   +H2                 6.770E+05   1.88     0.764
C2H4    +O       =OH      +C2H3               1.510E+07   1.91    15.659
C2H4    +O2      =C2H3    +HO2                4.215E+13   0.00   241.160
C2H4    +OH      =CH2CH2OH                    1.000E+11   0.00    -9.986
CH3CHO  +H       =CH3CO   +H2                 2.047E+09   1.16    10.057
CH3CHO  +H       =CH2CHO  +H2                 5.750E+07   1.90    31.527
CH3CHO  +O       =CH3CO   +OH                 5.258E+12   0.00     7.599
CH3CHO  +O       =CH2CHO  +OH                 5.842E+11   0.00     7.599
CH3CHO  +OH      =CH3CO   +H2O                2.688E+08   1.35    -6.582
CH3CHO  +OH      =CH2CHO  +H2O                2.023E+07   1.35    -6.582
CH3CHO  +HO2     =CH3CO   +H2O2               4.095E+04   2.50    42.689
CH3CHO  +O2      =CH3CO   +HO2                1.204E+05   2.50   157.131
CH3CHO  +CH2     =CH3CO   +CH3                2.500E+12   0.00    15.897
CH3CHO  +CH3     =CH3CO   +CH4                3.493E-10   6.21     6.816
CH3CHO  +CH3     =CH2CHO  +CH4                2.801E+10   0.00    39.408
   DUPLICATE
CH3CHO  +CH3     =CH2CHO  +CH4                4.216E+14   0.00    93.116
   DUPLICATE 

CH3CHO (+M)      =CH3     +CHO    (+M)        2.100E+16   0.00   342.020
   LOW/ 7.830E+17   0.00   346.206/
   TROE/ 5.000E-01  0.000E+00   0.000E+00   0.000E+00/
   H2/1.0/ H2O/6.5/ O2/0.4/ AR/0.35/ N2/0.4/ CO/0.75/ CO2/1.5/ CH4/1.0/
  
CH3CHO  +HO2     =CH2CHO  +H2O2               2.320E+11   0.40    62.233
C2H5    +O2      =C2H4    +HO2                5.460E+11   0.00    16.245
C2H5    +O       =CH3CHO  +H                  5.320E+13   0.00     0.000
C2H5    +O       =CH2O    +CH3                3.975E+13   0.00     0.000
C2H5    +CHO     =C2H6    +CO                 1.200E+14   0.00     0.000
C2H5    +HO2     =CH3CH2O +OH                 4.000E+13   0.00     0.000
C2H5    +O       =C2H4    +OH                 2.500E+13   0.00     0.000
C2H6    +O       =C2H5    +OH                 3.970E+14   0.00    41.868
C2H6    +HO2     =C2H5    +H2O2               1.102E+05   2.50    70.502
C2H6    +O2      =C2H5    +HO2                7.287E+05   2.50   205.685
C2H6    +OH      =C2H5    +H2O                9.154E+06   2.00     4.157
C3H2    +O2      =CHO     +HCCO               1.000E+13   0.00     0.000
C3H2    +O       =C2H2    +CO                 6.800E+13   0.00     0.000
C3H2    +OH      =CHO     +C2H2               6.800E+13   0.00     0.000
C3H2    +O2      =HCCO    +CO      +H         5.000E+13   0.00     0.000
C3H2    +HCCO    =N-C4H3  +CO                 1.000E+13   0.00     0.000